Version 4
SHEET 1 880 680
WIRE 336 96 240 96
WIRE 528 96 336 96
WIRE 528 160 528 96
WIRE 336 160 336 96
WIRE 240 160 240 96
WIRE 240 288 240 240
WIRE 336 288 336 240
WIRE 528 288 528 240
WIRE 144 288 144 368
WIRE 240 368 240 288
WIRE 144 368 240 368
WIRE 240 368 336 368
WIRE 336 368 528 368
WIRE 528 368 528 288
FLAG 144 448 0
FLAG 528 368 0
SYMBOL res 224 144 R0
SYMATTR InstName R1
SYMATTR Value 33K
SYMBOL res 224 272 R0
SYMATTR InstName R2
SYMATTR Value 8.2K
SYMBOL cap 512 160 R0
SYMATTR InstName C1
SYMATTR Value 100nF
SYMBOL cap 320 160 R0
SYMATTR InstName C2
SYMATTR Value 1.5nF
SYMBOL ind 784 160 R270
SYMATTR InstName L1
SYMATTR Value 100µ
SYMBOL voltage 128 368 R0
SYMATTR InstName V1
SYMATTR Value SINE(0 9 455K)
TEXT 144 600 Left 2 .ac dec 100 10 10Meg
