Version 4
SHEET 1 880 680
WIRE 144 96 336 96
WIRE 336 96 336 160
WIRE 144 160 144 96
WIRE 144 288 144 240
WIRE 336 288 336 240
WIRE 144 288 336 288
FLAG 240 288 0
FLAG 240 96 Vtop
SYMBOL ind 128 160 R0
SYMATTR InstName L1
SYMATTR Value 100µ
SYMBOL cap 320 160 R0
SYMATTR InstName C1
SYMATTR Value 10nF
SYMBOL voltage 240 96 R180
SYMATTR InstName V1
SYMATTR Value SINE(0 5 159K)
TEXT 144 420 Left 2 .tran 0 50u 0 1n
