Version 4
SHEET 1 880 680
WIRE 144 96 240 96
WIRE 336 96 240 96
WIRE 336 96 336 160
WIRE 144 160 144 96
WIRE 144 288 144 240
WIRE 336 288 336 240
FLAG 144 368 0
FLAG 336 368 0
SYMBOL res 224 80 R90
SYMATTR InstName R1
SYMATTR Value 10K
SYMBOL cap 320 160 R0
SYMATTR InstName C1
SYMATTR Value 100nF
SYMBOL voltage 128 224 R0
SYMATTR InstName V1
SYMATTR Value SINE(0 5 1K)
TEXT 144 500 Left 2 .ac dec 50 1 100K
